Hello Git!!!

New line.

Else line.

Branch.

New changes.
