Hello Git!!!

New line...

Else line...

Branch...

New changes.

Else changes.

Number of commit.
